# RBCS package parameters:
 &RBCS_PARM01
#------------------------------------------------------------------------------
# switches
#------------------------------------------------------------------------------
   useRBCtemp=.TRUE.,
   useRBCvVel=.FALSE.,
   useRBCuVel=.TRUE.,
   useRBCsalt=.TRUE.,
   useRBCeta=.TRUE.,
#------------------------------------------------------------------------------
#- relaxation times
# This is the timescale where "sponge=1".
#------------------------------------------------------------------------------
    tauRelaxU=43200.,
    tauRelaxV=43200.,
    tauRelaxT=43200.,
    tauRelaxS=43200.,
    tauRelaxEta=60.,
#------------------------------------------------------------------------------
# masks - #1 and #2 = T,S , #3 = tracers ;
# masks  U,V have explicit name - if left out then TMask = used
#------------------------------------------------------------------------------
# Probably need different U and V masks because they are on a slightly different
# grid
   relaxMaskFile='../indata/spongeweight.bin',
   relaxMaskEtaFile='../indata/etaweight.bin',
#   relaxMaskUFile='usponge.bin',
#   relaxMaskVFile='vsponge.bin',

#------------------------------------------------------------------------------
# files containing relaxation flds  have explicit name
#------------------------------------------------------------------------------
   relaxTFile='../indata/Tforce.bin',
   relaxUFile='../indata/Uforce.bin',
   relaxSFile='../indata/Sforce.bin',
   relaxEtaFile='../indata/Etaforce.bin',
#   relaxVFile='Vforce.bin',
#------------------------------------------------------------------------------
#   rbcsIniter=0,
# 1/24 tidal cycle
rbcsForcingPeriod=1860.,
rbcsForcingCycle=44640.,
 /
&RBCS_PARM02
 useRBCptrnum(1)=.FALSE.,
 useRBCptrnum(2)=.FALSE.,
 /