# Packages
 &PACKAGES
 useOBCS=.FALSE.,
 useKL10=.TRUE.,
 useKPP=.TRUE.,
 useDIAGNOSTICS=.TRUE.,
 useMNC=.FALSE.,
 useRBCS=.TRUE.,
 /
