# diagnostics Package

&diagnostics_list
# 3D variables.
 frequency(1)  = -1800,
 timePhase(1)  = 0,
 fields(1:7,1) = 'UVEL    ',
                 'WVEL    ',
                 'THETA   ',
                 'SALT    ',
                 'PHIHYD  ',
                 'TRAC01  ',
                 'TRAC02  ',
 filename(1)   = 'spinup'
#
 filename(2)   = 'spinup2d'
 frequency(2)  = -1800,
 timePhase(2)  = 0,
 fields(1:2,2) = 'ETAN    ',
                 'PHIBOT  ',
/

&diag_statis_parms
/
